%chk=gauss.chk
# hf/6-31G(d) force

Force calculation

0 1
C         -2.66686682        0.50282055       -0.06122081
C         -2.04029535        1.22880773        1.13337726
C         -0.90200069        0.49181120        1.84597659
F          0.09165972        0.27129879        1.01859169
F         -3.61760934        1.25269873       -0.56240193
F         -3.18208949       -0.64286397        0.31592676
F         -1.56517510        2.38925216        0.70083346
F         -2.99946201        1.45198480        2.02193268
F         -0.47321079        1.23217085        2.83877301
F         -1.32327673       -0.65570341        2.32153325
F         -1.76625309        0.28020121       -0.98844256

